
**** 10/01/24 13:17:49 **** PSpice 22.1.0 (6 October 2022) **** ID# 0 ********

 ** Profile: "SCHEMATIC1-trans"  [ C:\Users\A1201-admin\Documents\Exjobb\Orcad\Test-PSpiceFiles\SCHEMATIC1\trans.sim ] 


 ****     CIRCUIT DESCRIPTION


******************************************************************************




** Creating circuit file "trans.cir" 
** WARNING: THIS AUTOMATICALLY GENERATED FILE MAY BE OVERWRITTEN BY SUBSEQUENT SIMULATIONS

*Libraries: 
* Profile Libraries :
* Local Libraries :
* From [PSPICE NETLIST] section of C:\Users\A1201-admin\cdssetup\OrCAD_PSpice\22.1.0\PSpice.ini file:
.lib "nom.lib" 

*Analysis directives: 
.TRAN  0 1000ns 0 
.OPTIONS ADVCONV
.PROBE64 V(alias(*)) I(alias(*)) W(alias(*)) D(alias(*)) NOISE(alias(*)) 
.INC "..\SCHEMATIC1.net" 



**** INCLUDING SCHEMATIC1.net ****
* source TEST
V_V1         N14349 0 1
R_R1         N14349 N14470  1k TC=0,0 

**** RESUMING trans.cir ****
.END

ERROR(ORPSIM-15141): Less than 2 connections at node N14470.
