
**** 01/22/25 17:06:09 **** PSpice 22.1.0 (6 October 2022) **** ID# 0 ********

 ** Profile: "SCHEMATIC1-AC"  [ C:\Users\A1201-admin\Documents\Exjobb\Orcad\Filter-PSpiceFiles\SCHEMATIC1\AC.sim ] 


 ****     CIRCUIT DESCRIPTION


******************************************************************************




** Creating circuit file "AC.cir" 
** WARNING: THIS AUTOMATICALLY GENERATED FILE MAY BE OVERWRITTEN BY SUBSEQUENT SIMULATIONS

*Libraries: 
* Profile Libraries :
* Local Libraries :
* From [PSPICE NETLIST] section of C:\Users\A1201-admin\cdssetup\OrCAD_PSpice\22.1.0\PSpice.ini file:
.lib "C:\Users\A1201-admin\Documents\Exjobb\Orcad\lmg1210.lib" 
.lib "nom.lib" 

*Analysis directives: 
.AC DEC 1000 1 100meg
.OPTIONS ADVCONV
.PROBE64 V(alias(*)) I(alias(*)) W(alias(*)) D(alias(*)) NOISE(alias(*)) 
.INC "..\SCHEMATIC1.net" 



**** INCLUDING SCHEMATIC1.net ****
* source FILTER
L_L1         N14552 N14473  1u  
R_Rdamp         N14467 N14473  200 TC=0,0 
R_Rload         0 N14502  1 TC=0,0 
L_L2         N14473 N46457  1.5u  
C_C1         0 N14467  70p  TC=0,0 
V_V1         N111436 0  
+PULSE 0 30 0 3n 3n 14n 20n
V_V4         VCC_ARROW 0 30
V_V5         VCC 0 -30
R_R2         N49514 N52818  20k TC=0,0 
R_R1         N49541 N52822  20k TC=0,0 
R_R3         N49627 N49541  1k TC=0,0 
R_R4         N49514 0  1k TC=0,0 
X_U4         N49514 N49541 VCC_ARROW VCC N49627 AD8004AN/AD
X_U6         0 N71363 VCC_ARROW VCC N71372 AD8004AN/AD
R_R10         N71363 N71372  1meg TC=0,0 
R_R11         N76028 N52822  10.001k TC=0,0 
R_R12         N76024 N52818  9999 TC=0,0 
R_R13         N76024 0  1000.1 TC=0,0 
R_R14         N76176 N76028  999.9 TC=0,0 
X_U7         N76024 N76028 VCC_ARROW VCC N76176 AD8004AN/AD
R_Rshunt2         N82074 N82070  0.1 TC=0,0 
R_R16         N82556 N95680  10.001k TC=0,0 
R_R17         N82552 0  100010 TC=0,0 
R_R18         N82696 N82556  99990 TC=0,0 
X_U8         N82552 N82556 VCC_ARROW VCC N82696 AD8004AN/AD
R_R15         N82552 N82470  9999 TC=0,0 
R_R19         N84482 N95680  10k TC=0,0 
R_R21         N84482 0  100k TC=0,0 
R_R20         N84486 N82470  10k TC=0,0 
X_U9         N84482 N84486 VCC_ARROW VCC N84620 AD8004AN/AD
R_R22         N84620 N84486  100k TC=0,0 
X_TX3    N82074 N82070 N46457 N14502 SCHEMATIC1_TX3 
R_R23         N84620 N71363  1meg TC=0,0 
R_R24         VCC-1 N71363  1meg TC=0,0 
V_V6         VCC-1 0 -1
V_V7         N14552 0 DC 0Vdc AC 1Vac 
R_Rdamp1         0 N111436  200 TC=0,0 

.subckt SCHEMATIC1_TX3 1 2 3 4  
K_TX3         L1_TX3 L2_TX3 0.99
L1_TX3         1 2 1n
L2_TX3         3 4 1n
.ends SCHEMATIC1_TX3

**** RESUMING AC.cir ****
.END

ERROR(ORPSIM-15142): Node N82074 is floating

ERROR(ORPSIM-15142): Node N82070 is floating
