
**** 11/14/24 19:57:19 **** PSpice 22.1.0 (6 October 2022) **** ID# 0 ********

 ** Profile: "SCHEMATIC1-trans"  [ C:\Users\A1201-admin\Documents\Exjobb\Orcad\filter-pspicefiles\schematic1\trans.sim ] 


 ****     CIRCUIT DESCRIPTION


******************************************************************************




** Creating circuit file "trans.cir" 
** WARNING: THIS AUTOMATICALLY GENERATED FILE MAY BE OVERWRITTEN BY SUBSEQUENT SIMULATIONS

*Libraries: 
* Profile Libraries :
* Local Libraries :
* From [PSPICE NETLIST] section of C:\Users\A1201-admin\cdssetup\OrCAD_PSpice\22.1.0\PSpice.ini file:
.lib "C:\Users\A1201-admin\Documents\Exjobb\Orcad\lmg1210.lib" 
.lib "nom.lib" 

*Analysis directives: 
.TRAN  0 20u 0 0.1n 
.OPTIONS ADVCONV
.PROBE64 V(alias(*)) I(alias(*)) W(alias(*)) D(alias(*)) NOISE(alias(*)) 
.INC "..\SCHEMATIC1.net" 



**** INCLUDING SCHEMATIC1.net ****
* source FILTER
L_L1         N14552 N14471  1u  
R_R1         N14467 N14471  200 TC=0,0 
R_R2         0 N14502  0.1 TC=0,0 
L_L2         N14471 N14502  1.5u  
C_C1         0 N14467  170p  TC=0,0 
V_V1         N14552 0  
+PULSE 0 60 0 3n 3n 14n 20n

**** RESUMING trans.cir ****
.END

**** 11/14/24 19:57:19 **** PSpice 22.1.0 (6 October 2022) **** ID# 0 ********

 ** Profile: "SCHEMATIC1-trans"  [ C:\Users\A1201-admin\Documents\Exjobb\Orcad\filter-pspicefiles\schematic1\trans.sim ] 


 ****     INITIAL TRANSIENT SOLUTION       TEMPERATURE =   27.000 DEG C


******************************************************************************



 NODE   VOLTAGE     NODE   VOLTAGE     NODE   VOLTAGE     NODE   VOLTAGE


(N14467)    0.0000 (N14471)    0.0000 (N14502)    0.0000 (N14552)    0.0000 




    VOLTAGE SOURCE CURRENTS
    NAME         CURRENT

    V_V1         0.000E+00

    TOTAL POWER DISSIPATION   0.00E+00  WATTS



          JOB CONCLUDED

**** 11/14/24 19:57:19 **** PSpice 22.1.0 (6 October 2022) **** ID# 0 ********

 ** Profile: "SCHEMATIC1-trans"  [ C:\Users\A1201-admin\Documents\Exjobb\Orcad\filter-pspicefiles\schematic1\trans.sim ] 


 ****     JOB STATISTICS SUMMARY


******************************************************************************



  License check-out time            =     1096.80
  Total job time (using Solver 1)   =         .97
