
**** 10/14/24 16:25:44 **** PSpice 22.1.0 (6 October 2022) **** ID# 0 ********

 ** Profile: "SCHEMATIC1-trans_1"  [ c:\users\a1201-admin\documents\exjobb\orcad\mostest_cadence-PSpiceFiles\SCHEMATIC1\trans_1.sim ]


 ****     CIRCUIT DESCRIPTION


******************************************************************************




** Creating circuit file "trans_1.cir" 
** WARNING: THIS AUTOMATICALLY GENERATED FILE MAY BE OVERWRITTEN BY SUBSEQUENT SIMULATIONS

*Libraries: 
* Profile Libraries :
* Local Libraries :
* From [PSPICE NETLIST] section of C:\Users\A1201-admin\cdssetup\OrCAD_PSpice\22.1.0\PSpice.ini file:
.lib "C:\Users\A1201-admin\Documents\Exjobb\Orcad\lmg1210.lib" 
.lib "nom.lib" 

*Analysis directives: 
.TRAN  0 10ns 0 
.OPTIONS ADVCONV
.AUTOCONVERGE ITL1=1000 ITL2=1000 ITL4=1000 RELTOL=0.05 ABSTOL=1.0E-6 VNTOL=.001 PIVTOL=1.0E-10 
.PROBE64 V(alias(*)) I(alias(*)) W(alias(*)) D(alias(*)) NOISE(alias(*)) 
.INC "..\SCHEMATIC1.net" 



**** INCLUDING SCHEMATIC1.net ****
* source MOSTEST_CADENCE
C_C1         0 VCC-200  1u  TC=0,0 
R_R1         0 N16736  0.5 TC=0,0 
V_V1         N20055 0  
+PULSE 0 6 0.5n 0n 0.5n 15n 40n
V_V2         VCC-200 0 20
V_V3         VCC-10 0 10
C_C2         HS HB  {C_f}  TC=0,0 
C_C3         0 VCC-5  {C_f*5}  TC=0,0 
R_R2         0 N22644  {Rdt} TC=0,0 
R_R3         0 N22362  {Rdt} TC=0,0 
X_U5         HB HO N20055 HS HS HS HS 0 0 VCC-10 LO N22362 N22644 VCC 0 0 VCC 0
+  0 0 BST LMG1210
L_L1         HS N16736  80n  
X_U4         BST HB D_D1
C_C4         VCC-10 0  1u  TC=0,0 
V_V4         VCC-5 0 4
X_M1         VCC-200 HO HS POWER_NMOS_P PARAMS: BVDSS=500.0 IDSS=1U VGS_TH=2.2
+  RDSON=0.0059 GFS=7.1 CISS=149P COSS=46.4P CRSS=0.96P RG=1.8 VSD=0.45 QG=17.2N
+  V_QG=10 TRR=50N
X_M2         HS LO 0 POWER_NMOS_P PARAMS: BVDSS=500.0 IDSS=1U VGS_TH=2.2
+  RDSON=0.0059 GFS=7.1 CISS=149P COSS=46.4P CRSS=0.96P RG=1.8 VSD=0.45 QG=17.2N
+  V_QG=10 TRR=50N
.PARAM  dt=2mn rdt={900/dt-25} c_f=1u

**** RESUMING trans_1.cir ****
.END

**** 10/14/24 16:25:44 **** PSpice 22.1.0 (6 October 2022) **** ID# 0 ********

 ** Profile: "SCHEMATIC1-trans_1"  [ c:\users\a1201-admin\documents\exjobb\orcad\mostest_cadence-PSpiceFiles\SCHEMATIC1\trans_1.sim ]


 ****     Diode MODEL PARAMETERS


******************************************************************************




               X_M1.N_MOSFET.DBT 
          IS    1.000000E-06 
           N    1.514981     
          BV  500            
          TT   50.000000E-09 
         CJO  100.000000E-15 
           M     .35         


               X_M2.N_MOSFET.DBT 
          IS    1.000000E-06 
           N    1.514981     
          BV  500            
          TT   50.000000E-09 
         CJO  100.000000E-15 
           M     .35         


**** 10/14/24 16:25:44 **** PSpice 22.1.0 (6 October 2022) **** ID# 0 ********

 ** Profile: "SCHEMATIC1-trans_1"  [ c:\users\a1201-admin\documents\exjobb\orcad\mostest_cadence-PSpiceFiles\SCHEMATIC1\trans_1.sim ]


 ****     MOSFET MODEL PARAMETERS


******************************************************************************




               X_M1.N_MOSFET   X_M2.N_MOSFET   
               NMOS            NMOS            
       LEVEL    1               1            
           L  100.000000E-06  100.000000E-06 
           W  100.000000E-06  100.000000E-06 
         VTO    2.7             2.7          
          KP   14.2            14.2          
       GAMMA    0               0            
         PHI     .6              .6          
      LAMBDA    0               0            
          IS   10.000000E-15   10.000000E-15 
          JS    0               0            
          PB     .8              .8          
        PBSW     .8              .8          
          CJ    0               0            
        CJSW    0               0            
        CGSO    0               0            
        CGDO    0               0            
        CGBO    0               0            
         TOX  100.000000E-09  100.000000E-09 
          XJ    0               0            
       UCRIT   10.000000E+03   10.000000E+03 
      DIOMOD    1               1            
         VFB    0               0            
        LETA    0               0            
        WETA    0               0            
          U0    0               0            
        TEMP    0               0            
         VDD    5               5            
       XPART    0               0            


**** 10/14/24 16:25:44 **** PSpice 22.1.0 (6 October 2022) **** ID# 0 ********

 ** Profile: "SCHEMATIC1-trans_1"  [ c:\users\a1201-admin\documents\exjobb\orcad\mostest_cadence-PSpiceFiles\SCHEMATIC1\trans_1.sim ]


 ****     Voltage Controlled Switch MODEL PARAMETERS


******************************************************************************




               X_M1.S_GATE_CHG_SW 
         RON     .01         
        ROFF  100.000000E+06 
         VON    3.3          
        VOFF    2.2          


               X_M2.S_GATE_CHG_SW 
         RON     .01         
        ROFF  100.000000E+06 
         VON    3.3          
        VOFF    2.2          


WARNING(ORPSIM-15459): In device V_V1, default values (TR=1.00e-09) are used for zero TR and TF. Use the DEFTR and DEFTF options to control these defaults. To disable default value usage for zero TR and TF, specify the DISABLE_DEFAULT_PULSE_PARAMS option.

Starting pseudo-transient algorithm.

INFO(ORPSIM-16594): To improve Pseudotransient Convergence and Performance, set following options to relax stabilization criteria for capacitor currents and inductor voltages: PTRANABSTOL=1e-5, PTRANVNTOL=1e-4

WARNING(ORPSIM-16534): Using high values of ITL4 for Speed Level > 0 may increase total simulation job time.
Convergence problem in transient bias point calculation


  Last node voltages tried were:

 NODE   VOLTAGE     NODE   VOLTAGE     NODE   VOLTAGE     NODE   VOLTAGE


(   HB)     .7511  (   HO)    -.0080  (   HS)    -.0080  (   LO)     .7543      

(  BST)     .8258  (  VCC)    3.8396  (VCC-5)    3.9508  (N16736)     .0012     

(N20055)    0.0000 (N22362)    1.6843 (N22644)    1.6843 (VCC-10)    9.8771     

(X_M1.d)   19.7540 (X_M1.g)    -.0080 (X_M1.s)    -.0080 (X_M2.d)    -.0080     

(X_M2.g)     .3889 (X_M2.s) 595.1E-06 (VCC-200)   19.7540                       

(X_M1.ga)    -.0083                   (X_M1.gb)    -.0069                       

(X_M2.ga)     .3765                   (X_M2.gb)    3.1528                       

(X_U5.HS)    -.0080                   (X_U5.VSS)    0.0000                      

(X_M1.drain_a)   19.7540              (X_M1.drain_b)   19.7560                  

(X_M2.drain_a)    -.0080              (X_M2.drain_b)    -.0100                  

(X_U5.LMG1210_VSS)-79.98E-06          (X_U5.LMG1210_LO_BST) 315.0E-06           

(X_U5.LMG1210_CORE_HOH)    -.0080     (X_U5.LMG1210_CORE_LOH)     .7545         

(X_U5.LMG1210_VDD_VLDO)    4.0856     (X_U5.LMG1210_N16719683)     .8171        

(X_U5.LMG1210_N16721723)    -.0080    (X_U5.LMG1210_N16721992)    0.0000        

(X_U5.LMG1210_N16761314)   19.6200    (X_U5.LMG1210_CORE_HI_ON)-979.9E-09       

(X_U5.LMG1210_CORE_LO_ON)     .8709   (X_U5.X_LMG1210_PWM_U8.1)    0.0000       

(X_U5.LMG1210_CORE_UVLOHI)    0.0000  (X_U5.LMG1210_PWM_DT_CLKZ)     .9877      

(X_U5.LMG1210_PWM_DT_DVDD)    1.7779  (X_U5.X_LMG1210_CORE_U5.1)    0.0000      

(X_U5.X_LMG1210_CORE_U9.1)    0.0000  (X_U5.LMG1210_CORE_UVLOLOW)     .9878     

(X_U5.X_LMG1210_CORE_U10.1)     .9877 (X_U5.X_LMG1210_CORE_U13.1)    0.0000     

(X_U5.X_LMG1210_CORE_U14.1)     .7094 (X_U5.LMG1210_PWM_N16722442)    0.0000    

(X_U5.LMG1210_PWM_N16764262)    4.4447                                          

(X_U5.LMG1210_PWM_N16766360)    4.8779                                          

(X_U5.LMG1210_PWM_N16771098)     .2963                                          

(X_U5.LMG1210_PWM_N16774119)    0.0000                                          

(X_U5.LMG1210_PWM_N16775153)   18.4990                                          

(X_U5.LMG1210_PWM_N16775155)   19.8640                                          

(X_U5.LMG1210_PWM_N16778522)    0.0000                                          

(X_U5.LMG1210_PWM_N16782654)    0.0000                                          

(X_U5.LMG1210_PWM_N16783816)    0.0000                                          

(X_U5.X_LMG1210_CORE_U11.Yp)     .9877                                          

(X_U5.X_LMG1210_CORE_U12.Yp)    0.0000                                          

(X_U5.X_LMG1210_CORE_U15.Yp)     .9877                                          

(X_U5.X_LMG1210_CORE_U7.INT)-1.876E-06                                          

(X_U5.X_LMG1210_CORE_U8.INT)     .8623                                          

(X_U5.X_LMG1210_PWM_U8.INM1)    1.2901                                          

(X_U5.X_LMG1210_PWM_U8.INM2)    1.4364                                          

(X_U5.X_LMG1210_PWM_U8.INP1)   -1.4364                                          

(X_U5.LMG1210_CORE_N16621524)     .9877                                         

(X_U5.LMG1210_CORE_N16621542)    0.0000                                         

(X_U5.LMG1210_CORE_N16621646)    0.0000                                         

(X_U5.LMG1210_CORE_N16621650)    0.0000                                         

(X_U5.LMG1210_CORE_N16621734)    1.7778                                         

(X_U5.LMG1210_CORE_N16621760)     .3951                                         

(X_U5.LMG1210_CORE_N16621878)    1.7778                                         

(X_U5.LMG1210_CORE_N16621906)     .3951                                         

(X_U5.LMG1210_CORE_N16621966)    0.0000                                         

(X_U5.LMG1210_CORE_N16622210)   -4.9465                                         

(X_U5.LMG1210_CORE_N16622224)   -4.9465                                         

(X_U5.LMG1210_CORE_N16622258)    -.0080                                         

(X_U5.LMG1210_CORE_N16622408)    0.0000                                         

(X_U5.LMG1210_CORE_N16622620)    5.6931                                         

(X_U5.LMG1210_CORE_N16622670)    4.2350                                         

(X_U5.LMG1210_CORE_N16622702)    3.8347                                         

(X_U5.LMG1210_CORE_N16622828)    2.0566                                         

(X_U5.LMG1210_CORE_N16622840) 780.4E-06                                         

(X_U5.LMG1210_CORE_N16622960)    5.6928                                         

(X_U5.LMG1210_CORE_N16622998)     .6932                                         

(X_U5.LMG1210_CORE_N16623018)   -4.9465                                         

(X_U5.LMG1210_CORE_N16623024)   -4.9465                                         

(X_U5.LMG1210_CORE_N16623050)     .7511                                         

(X_U5.LMG1210_CORE_N16623296)    3.8129                                         

(X_U5.LMG1210_CORE_N16628590)    7.1115                                         

(X_U5.LMG1210_CORE_N16628618)     .1975                                         

(X_U5.LMG1210_CORE_N16628650)     .7496                                         

(X_U5.LMG1210_CORE_N16631286)    3.5064                                         

(X_U5.LMG1210_CORE_N16631334)     .0988                                         

(X_U5.LMG1210_CORE_N16631366)     .7496                                         

(X_U5.LMG1210_CORE_N16633096)    4.1977                                         

(X_U5.LMG1210_CORE_N16633124)     .1975                                         

(X_U5.LMG1210_CORE_N16645608)    0.0000                                         

(X_U5.LMG1210_CORE_N16645614) 3.049E-09                                         

(X_U5.LMG1210_CORE_N16682205)     .8817                                         

(X_U5.LMG1210_CORE_N16704239) 3.049E-09                                         

(X_U5.X_LMG1210_CORE_U11.Ypp)    0.0000                                         

(X_U5.X_LMG1210_CORE_U12.Ypp)     .9877                                         

(X_U5.X_LMG1210_CORE_U15.Ypp)     .9877                                         

(X_U5.X_LMG1210_CORE_U2.YINT)    0.0000                                         

(X_U5.X_LMG1210_CORE_U3.YINT)     .9877                                         

(X_U5.X_LMG1210_CORE_U4.YINT)    0.0000                                         

(X_U5.X_LMG1210_CORE_U5.INM1)    1.7560                                         

(X_U5.X_LMG1210_CORE_U5.INP1)    0.0000                                         

(X_U5.X_LMG1210_CORE_U5.INP2)    0.0000                                         

(X_U5.X_LMG1210_CORE_U9.INM1)    6.2837                                         

(X_U5.X_LMG1210_CORE_U9.INP1)    0.0000                                         

(X_U5.X_LMG1210_CORE_U9.INP2)    0.0000                                         

(X_U5.X_LMG1210_CORE_U10.INM1)  -17.6230                                        

(X_U5.X_LMG1210_CORE_U10.INP1)    0.0000                                        

(X_U5.X_LMG1210_CORE_U10.INP2)     .3902                                        

(X_U5.X_LMG1210_CORE_U11.OUTf) 3.049E-09                                        

(X_U5.X_LMG1210_CORE_U11.OUTp)     .9877                                        

(X_U5.X_LMG1210_CORE_U11.OUTr) 3.087E-09                                        

(X_U5.X_LMG1210_CORE_U11.VSUP)     .9877                                        

(X_U5.X_LMG1210_CORE_U12.OUTf)     .8817                                        

(X_U5.X_LMG1210_CORE_U12.OUTp)     .4048                                        

(X_U5.X_LMG1210_CORE_U12.OUTr)     .8927                                        

(X_U5.X_LMG1210_CORE_U12.VSUP)     .9877                                        

(X_U5.X_LMG1210_CORE_U13.INM1)    2.7229                                        

(X_U5.X_LMG1210_CORE_U13.INP1)    0.0000                                        

(X_U5.X_LMG1210_CORE_U13.INP2)    0.0000                                        

(X_U5.X_LMG1210_CORE_U14.INM1)     .3537                                        

(X_U5.X_LMG1210_CORE_U14.INP1)    0.0000                                        

(X_U5.X_LMG1210_CORE_U14.INP2)     .1951                                        

(X_U5.X_LMG1210_CORE_U15.OUTf) 3.049E-09                                        

(X_U5.X_LMG1210_CORE_U15.OUTp)     .6179                                        

(X_U5.X_LMG1210_CORE_U15.OUTr) 3.087E-09                                        

(X_U5.X_LMG1210_CORE_U15.VSUP)     .9877                                        

(X_U5.X_LMG1210_U_LDO.LDO_VXX)    4.7879                                        

(X_U5.X_LMG1210_U_LDO.LDO_VYY)    4.2103                                        

(X_U5.X_LMG1210_U_LDO.LDO_VZZ)    4.0856                                        

(X_U5.LMG1210_PWM_DT_N16754844)     .9877                                       

(X_U5.LMG1210_PWM_DT_N16754872)    0.0000                                       

(X_U5.LMG1210_PWM_DT_N16754912)    0.0000                                       

(X_U5.LMG1210_PWM_DT_N16755160)    0.0000                                       

(X_U5.LMG1210_PWM_DT_N16755188)     .9877                                       

(X_U5.LMG1210_PWM_DT_N16755228)     .9877                                       

(X_U5.LMG1210_PWM_DT_N16755282)     .9877                                       

(X_U5.LMG1210_PWM_DT_N16755332)    0.0000                                       

(X_U5.LMG1210_PWM_DT_N16755440)    0.0000                                       

(X_U5.LMG1210_PWM_DT_N16755450)     .9877                                       

(X_U5.LMG1210_PWM_DT_N16758862)    1.7779                                       

(X_U5.LMG1210_PWM_DT_N16769401)   -4.1483                                       

(X_U5.LMG1210_PWM_SELECT_HI_LO)    0.0000                                       

(X_U5.X_LMG1210_PWM_DT_U8.Yint)    0.0000                                       

(X_U5.X_LMG1210_PWM_DT_U9.Yint)     .9877                                       

(X_U5.X_LMG1210_PWM_DT_U28.YINT)     .9877                                      

(X_U5.X_LMG1210_PWM_DT_U29.YINT)     .9877                                      

(X_U5.X_LMG1210_PWM_DT_U30.YINT)    0.0000                                      

(X_U5.X_LMG1210_PWM_DT_U31.YINT)    0.0000                                      

(X_U5.X_LMG1210_PWM_DT_U32.YINT)    0.0000                                      

(X_U5.X_LMG1210_PWM_DT_U33.YINT)     .9877                                      

(X_U5.X_LMG1210_PWM_DT_U34.YINT)     .9877                                      

(X_U5.X_LMG1210_CORE_U7.X_U1.YINT)    0.0000                                    

(X_U5.X_LMG1210_CORE_U8.X_U1.YINT)     .9877                                    

(X_U5.X_LMG1210_U_LDO.LDO_N222524)    4.7853                                    

(X_U5.X_LMG1210_U_LDO.LDO_N242982)    4.1095                                    

(X_U5.X_LMG1210_CORE_U11.XNSW1.test)    0.0000                                  

(X_U5.X_LMG1210_CORE_U11.XNSW2.test)     .9756                                  

(X_U5.X_LMG1210_CORE_U11.XPSW1.test)     .9756                                  

(X_U5.X_LMG1210_CORE_U11.XPSW2.test)    0.0000                                  

(X_U5.X_LMG1210_CORE_U12.XNSW1.test)     .9756                                  

(X_U5.X_LMG1210_CORE_U12.XNSW2.test)    0.0000                                  

(X_U5.X_LMG1210_CORE_U12.XPSW1.test)    0.0000                                  

(X_U5.X_LMG1210_CORE_U12.XPSW2.test)     .9756                                  

(X_U5.X_LMG1210_CORE_U15.XNSW1.test)     .9756                                  

(X_U5.X_LMG1210_CORE_U15.XNSW2.test)     .9756                                  

(X_U5.X_LMG1210_CORE_U15.XPSW1.test)    0.0000                                  

(X_U5.X_LMG1210_CORE_U15.XPSW2.test)    0.0000                                  

(X_U5.X_LMG1210_U_LDO.LDO_U1_N05348)     .9810                                  

(X_U5.X_LMG1210_U_LDO.LDO_U1_N05382)    4.8450                                  

(X_U5.X_LMG1210_U_LDO.LDO_U1_N08164)     .9877                                  

(X_U5.X_LMG1210_U_LDO.LDO_U1_N09035)    4.8453                                  

(X_U5.X_LMG1210_U_LDO.LDO_U1_N09745)    4.7855                                  

(X_U5.X_LMG1210_U_LDO.LDO_U1_N11113)     .9877                                  

(X_U5.X_LMG1210_U_LDO.LDO_U1_N11626)     .0988                                  

(X_U5.X_LMG1210_U_LDO.LDO_U1_N11911)     .3951                                  

(X_U5.X_LMG1210_U_LDO.LDO_U1_N12664)     .0988                                  

(X_U5.X_LMG1210_U_LDO.LDO_U1_N12783)     .0988                                  

(X_U5.X_LMG1210_U_LDO.LDO_U1_N13377)     .9877                                  

(X_U5.X_LMG1210_U_LDO.X_LDO_U1_U1.1)     .9877                                  

(X_U5.X_LMG1210_U_LDO.X_LDO_U1_U2.1)     .9877                                  

(X_U5.X_LMG1210_U_LDO.X_LDO_U1_U1.INM1)   -9.3655                               

(X_U5.X_LMG1210_U_LDO.X_LDO_U1_U1.INP1)    0.0000                               

(X_U5.X_LMG1210_U_LDO.X_LDO_U1_U1.INP2)     .0976                               

(X_U5.X_LMG1210_U_LDO.X_LDO_U1_U2.INM1)   -9.6582                               

(X_U5.X_LMG1210_U_LDO.X_LDO_U1_U2.INP1)    0.0000                               

(X_U5.X_LMG1210_U_LDO.X_LDO_U1_U2.INP2)     .0976        

Resuming Simulation with the following settings
ITL1 = 291
ITL2 = 171
ABSTOL = 1.26e-10
VNTOL = 4.47e-05

Convergence problem in transient bias point calculation


  Last node voltages tried were:

 NODE   VOLTAGE     NODE   VOLTAGE     NODE   VOLTAGE     NODE   VOLTAGE


(   HB)    0.0000  (   HO)    0.0000  (   HS)    0.0000  (   LO)    0.0000      

(  BST)    0.0000  (  VCC)    0.0000  (VCC-5)    0.0000  (N16736)    0.0000     

(N20055)    0.0000 (N22362)    0.0000 (N22644)    0.0000 (VCC-10)    0.0000     

(X_M1.d)    0.0000 (X_M1.g)    0.0000 (X_M1.s)    0.0000 (X_M2.d)    0.0000     

(X_M2.g)    0.0000 (X_M2.s)    0.0000 (VCC-200)    0.0000                       

(X_M1.ga)    0.0000                   (X_M1.gb)    0.0000                       

(X_M2.ga)    0.0000                   (X_M2.gb)    0.0000                       

(X_U5.HS)    0.0000                   (X_U5.VSS)    0.0000                      

(X_M1.drain_a)    0.0000              (X_M1.drain_b)    0.0000                  

(X_M2.drain_a)    0.0000              (X_M2.drain_b)    0.0000                  

(X_U5.LMG1210_VSS)    0.0000          (X_U5.LMG1210_LO_BST)    0.0000           

(X_U5.LMG1210_CORE_HOH)    0.0000     (X_U5.LMG1210_CORE_LOH)    0.0000         

(X_U5.LMG1210_VDD_VLDO)    0.0000     (X_U5.LMG1210_N16719683)    0.0000        

(X_U5.LMG1210_N16721723)    0.0000    (X_U5.LMG1210_N16721992)    0.0000        

(X_U5.LMG1210_N16761314)    0.0000    (X_U5.LMG1210_CORE_HI_ON)    0.0000       

(X_U5.LMG1210_CORE_LO_ON)    0.0000   (X_U5.X_LMG1210_PWM_U8.1)    0.0000       

(X_U5.LMG1210_CORE_UVLOHI)    0.0000  (X_U5.LMG1210_PWM_DT_CLKZ)    0.0000      

(X_U5.LMG1210_PWM_DT_DVDD)    0.0000  (X_U5.X_LMG1210_CORE_U5.1)    0.0000      

(X_U5.X_LMG1210_CORE_U9.1)    0.0000  (X_U5.LMG1210_CORE_UVLOLOW)    0.0000     

(X_U5.X_LMG1210_CORE_U10.1)    0.0000 (X_U5.X_LMG1210_CORE_U13.1)    0.0000     

(X_U5.X_LMG1210_CORE_U14.1)    0.0000 (X_U5.LMG1210_PWM_N16722442)    0.0000    

(X_U5.LMG1210_PWM_N16764262)    0.0000                                          

(X_U5.LMG1210_PWM_N16766360)    0.0000                                          

(X_U5.LMG1210_PWM_N16771098)    0.0000                                          

(X_U5.LMG1210_PWM_N16774119)    0.0000                                          

(X_U5.LMG1210_PWM_N16775153)    0.0000                                          

(X_U5.LMG1210_PWM_N16775155)    0.0000                                          

(X_U5.LMG1210_PWM_N16778522)    0.0000                                          

(X_U5.LMG1210_PWM_N16782654)    0.0000                                          

(X_U5.LMG1210_PWM_N16783816)    0.0000                                          

(X_U5.X_LMG1210_CORE_U11.Yp)    0.0000                                          

(X_U5.X_LMG1210_CORE_U12.Yp)    0.0000                                          

(X_U5.X_LMG1210_CORE_U15.Yp)    0.0000                                          

(X_U5.X_LMG1210_CORE_U7.INT)    0.0000                                          

(X_U5.X_LMG1210_CORE_U8.INT)    0.0000                                          

(X_U5.X_LMG1210_PWM_U8.INM1)    0.0000                                          

(X_U5.X_LMG1210_PWM_U8.INM2)    0.0000                                          

(X_U5.X_LMG1210_PWM_U8.INP1)    0.0000                                          

(X_U5.LMG1210_CORE_N16621524)    0.0000                                         

(X_U5.LMG1210_CORE_N16621542)    0.0000                                         

(X_U5.LMG1210_CORE_N16621646)    0.0000                                         

(X_U5.LMG1210_CORE_N16621650)    0.0000                                         

(X_U5.LMG1210_CORE_N16621734)    0.0000                                         

(X_U5.LMG1210_CORE_N16621760)    0.0000                                         

(X_U5.LMG1210_CORE_N16621878)    0.0000                                         

(X_U5.LMG1210_CORE_N16621906)    0.0000                                         

(X_U5.LMG1210_CORE_N16621966)    0.0000                                         

(X_U5.LMG1210_CORE_N16622210)    0.0000                                         

(X_U5.LMG1210_CORE_N16622224)    0.0000                                         

(X_U5.LMG1210_CORE_N16622258)    0.0000                                         

(X_U5.LMG1210_CORE_N16622408)    0.0000                                         

(X_U5.LMG1210_CORE_N16622620)    0.0000                                         

(X_U5.LMG1210_CORE_N16622670)    0.0000                                         

(X_U5.LMG1210_CORE_N16622702)    0.0000                                         

(X_U5.LMG1210_CORE_N16622828)    0.0000                                         

(X_U5.LMG1210_CORE_N16622840)    0.0000                                         

(X_U5.LMG1210_CORE_N16622960)    0.0000                                         

(X_U5.LMG1210_CORE_N16622998)    0.0000                                         

(X_U5.LMG1210_CORE_N16623018)    0.0000                                         

(X_U5.LMG1210_CORE_N16623024)    0.0000                                         

(X_U5.LMG1210_CORE_N16623050)    0.0000                                         

(X_U5.LMG1210_CORE_N16623296)    0.0000                                         

(X_U5.LMG1210_CORE_N16628590)    0.0000                                         

(X_U5.LMG1210_CORE_N16628618)    0.0000                                         

(X_U5.LMG1210_CORE_N16628650)    0.0000                                         

(X_U5.LMG1210_CORE_N16631286)    0.0000                                         

(X_U5.LMG1210_CORE_N16631334)    0.0000                                         

(X_U5.LMG1210_CORE_N16631366)    0.0000                                         

(X_U5.LMG1210_CORE_N16633096)    0.0000                                         

(X_U5.LMG1210_CORE_N16633124)    0.0000                                         

(X_U5.LMG1210_CORE_N16645608)    0.0000                                         

(X_U5.LMG1210_CORE_N16645614)    0.0000                                         

(X_U5.LMG1210_CORE_N16682205)    0.0000                                         

(X_U5.LMG1210_CORE_N16704239)    0.0000                                         

(X_U5.X_LMG1210_CORE_U11.Ypp)    0.0000                                         

(X_U5.X_LMG1210_CORE_U12.Ypp)    0.0000                                         

(X_U5.X_LMG1210_CORE_U15.Ypp)    0.0000                                         

(X_U5.X_LMG1210_CORE_U2.YINT)    0.0000                                         

(X_U5.X_LMG1210_CORE_U3.YINT)    0.0000                                         

(X_U5.X_LMG1210_CORE_U4.YINT)    0.0000                                         

(X_U5.X_LMG1210_CORE_U5.INM1)    0.0000                                         

(X_U5.X_LMG1210_CORE_U5.INP1)    0.0000                                         

(X_U5.X_LMG1210_CORE_U5.INP2)    0.0000                                         

(X_U5.X_LMG1210_CORE_U9.INM1)    0.0000                                         

(X_U5.X_LMG1210_CORE_U9.INP1)    0.0000                                         

(X_U5.X_LMG1210_CORE_U9.INP2)    0.0000                                         

(X_U5.X_LMG1210_CORE_U10.INM1)    0.0000                                        

(X_U5.X_LMG1210_CORE_U10.INP1)    0.0000                                        

(X_U5.X_LMG1210_CORE_U10.INP2)    0.0000                                        

(X_U5.X_LMG1210_CORE_U11.OUTf)    0.0000                                        

(X_U5.X_LMG1210_CORE_U11.OUTp)    0.0000                                        

(X_U5.X_LMG1210_CORE_U11.OUTr)    0.0000                                        

(X_U5.X_LMG1210_CORE_U11.VSUP)    0.0000                                        

(X_U5.X_LMG1210_CORE_U12.OUTf)    0.0000                                        

(X_U5.X_LMG1210_CORE_U12.OUTp)    0.0000                                        

(X_U5.X_LMG1210_CORE_U12.OUTr)    0.0000                                        

(X_U5.X_LMG1210_CORE_U12.VSUP)    0.0000                                        

(X_U5.X_LMG1210_CORE_U13.INM1)    0.0000                                        

(X_U5.X_LMG1210_CORE_U13.INP1)    0.0000                                        

(X_U5.X_LMG1210_CORE_U13.INP2)    0.0000                                        

(X_U5.X_LMG1210_CORE_U14.INM1)    0.0000                                        

(X_U5.X_LMG1210_CORE_U14.INP1)    0.0000                                        

(X_U5.X_LMG1210_CORE_U14.INP2)    0.0000                                        

(X_U5.X_LMG1210_CORE_U15.OUTf)    0.0000                                        

(X_U5.X_LMG1210_CORE_U15.OUTp)    0.0000                                        

(X_U5.X_LMG1210_CORE_U15.OUTr)    0.0000                                        

(X_U5.X_LMG1210_CORE_U15.VSUP)    0.0000                                        

(X_U5.X_LMG1210_U_LDO.LDO_VXX)    0.0000                                        

(X_U5.X_LMG1210_U_LDO.LDO_VYY)    0.0000                                        

(X_U5.X_LMG1210_U_LDO.LDO_VZZ)    0.0000                                        

(X_U5.LMG1210_PWM_DT_N16754844)    0.0000                                       

(X_U5.LMG1210_PWM_DT_N16754872)    0.0000                                       

(X_U5.LMG1210_PWM_DT_N16754912)    0.0000                                       

(X_U5.LMG1210_PWM_DT_N16755160)    0.0000                                       

(X_U5.LMG1210_PWM_DT_N16755188)    0.0000                                       

(X_U5.LMG1210_PWM_DT_N16755228)    0.0000                                       

(X_U5.LMG1210_PWM_DT_N16755282)    0.0000                                       

(X_U5.LMG1210_PWM_DT_N16755332)    0.0000                                       

(X_U5.LMG1210_PWM_DT_N16755440)    0.0000                                       

(X_U5.LMG1210_PWM_DT_N16755450)    0.0000                                       

(X_U5.LMG1210_PWM_DT_N16758862)    0.0000                                       

(X_U5.LMG1210_PWM_DT_N16769401)    0.0000                                       

(X_U5.LMG1210_PWM_SELECT_HI_LO)    0.0000                                       

(X_U5.X_LMG1210_PWM_DT_U8.Yint)    0.0000                                       

(X_U5.X_LMG1210_PWM_DT_U9.Yint)    0.0000                                       

(X_U5.X_LMG1210_PWM_DT_U28.YINT)    0.0000                                      

(X_U5.X_LMG1210_PWM_DT_U29.YINT)    0.0000                                      

(X_U5.X_LMG1210_PWM_DT_U30.YINT)    0.0000                                      

(X_U5.X_LMG1210_PWM_DT_U31.YINT)    0.0000                                      

(X_U5.X_LMG1210_PWM_DT_U32.YINT)    0.0000                                      

(X_U5.X_LMG1210_PWM_DT_U33.YINT)    0.0000                                      

(X_U5.X_LMG1210_PWM_DT_U34.YINT)    0.0000                                      

(X_U5.X_LMG1210_CORE_U7.X_U1.YINT)    0.0000                                    

(X_U5.X_LMG1210_CORE_U8.X_U1.YINT)    0.0000                                    

(X_U5.X_LMG1210_U_LDO.LDO_N222524)    0.0000                                    

(X_U5.X_LMG1210_U_LDO.LDO_N242982)    0.0000                                    

(X_U5.X_LMG1210_CORE_U11.XNSW1.test)    0.0000                                  

(X_U5.X_LMG1210_CORE_U11.XNSW2.test)    0.0000                                  

(X_U5.X_LMG1210_CORE_U11.XPSW1.test)    0.0000                                  

(X_U5.X_LMG1210_CORE_U11.XPSW2.test)    0.0000                                  

(X_U5.X_LMG1210_CORE_U12.XNSW1.test)    0.0000                                  

(X_U5.X_LMG1210_CORE_U12.XNSW2.test)    0.0000                                  

(X_U5.X_LMG1210_CORE_U12.XPSW1.test)    0.0000                                  

(X_U5.X_LMG1210_CORE_U12.XPSW2.test)    0.0000                                  

(X_U5.X_LMG1210_CORE_U15.XNSW1.test)    0.0000                                  

(X_U5.X_LMG1210_CORE_U15.XNSW2.test)    0.0000                                  

(X_U5.X_LMG1210_CORE_U15.XPSW1.test)    0.0000                                  

(X_U5.X_LMG1210_CORE_U15.XPSW2.test)    0.0000                                  

(X_U5.X_LMG1210_U_LDO.LDO_U1_N05348)    0.0000                                  

(X_U5.X_LMG1210_U_LDO.LDO_U1_N05382)    0.0000                                  

(X_U5.X_LMG1210_U_LDO.LDO_U1_N08164)    0.0000                                  

(X_U5.X_LMG1210_U_LDO.LDO_U1_N09035)    0.0000                                  

(X_U5.X_LMG1210_U_LDO.LDO_U1_N09745)    0.0000                                  

(X_U5.X_LMG1210_U_LDO.LDO_U1_N11113)    0.0000                                  

(X_U5.X_LMG1210_U_LDO.LDO_U1_N11626)    0.0000                                  

(X_U5.X_LMG1210_U_LDO.LDO_U1_N11911)    0.0000                                  

(X_U5.X_LMG1210_U_LDO.LDO_U1_N12664)    0.0000                                  

(X_U5.X_LMG1210_U_LDO.LDO_U1_N12783)    0.0000                                  

(X_U5.X_LMG1210_U_LDO.LDO_U1_N13377)    0.0000                                  

(X_U5.X_LMG1210_U_LDO.X_LDO_U1_U1.1)    0.0000                                  

(X_U5.X_LMG1210_U_LDO.X_LDO_U1_U2.1)    0.0000                                  

(X_U5.X_LMG1210_U_LDO.X_LDO_U1_U1.INM1)    0.0000                               

(X_U5.X_LMG1210_U_LDO.X_LDO_U1_U1.INP1)    0.0000                               

(X_U5.X_LMG1210_U_LDO.X_LDO_U1_U1.INP2)    0.0000                               

(X_U5.X_LMG1210_U_LDO.X_LDO_U1_U2.INM1)    0.0000                               

(X_U5.X_LMG1210_U_LDO.X_LDO_U1_U2.INP1)    0.0000                               

(X_U5.X_LMG1210_U_LDO.X_LDO_U1_U2.INP2)    0.0000        

Resuming Simulation with the following settings
ITL1 = 565
ITL2 = 1000
ABSTOL = 1.58e-08

Convergence problem in transient bias point calculation


  Last node voltages tried were:

 NODE   VOLTAGE     NODE   VOLTAGE     NODE   VOLTAGE     NODE   VOLTAGE


(   HB)    0.0000  (   HO)    0.0000  (   HS)    0.0000  (   LO)    0.0000      

(  BST)    0.0000  (  VCC)    0.0000  (VCC-5)    0.0000  (N16736)    0.0000     

(N20055)    0.0000 (N22362)    0.0000 (N22644)    0.0000 (VCC-10)    0.0000     

(X_M1.d)    0.0000 (X_M1.g)    0.0000 (X_M1.s)    0.0000 (X_M2.d)    0.0000     

(X_M2.g)    0.0000 (X_M2.s)    0.0000 (VCC-200)    0.0000                       

(X_M1.ga)    0.0000                   (X_M1.gb)    0.0000                       

(X_M2.ga)    0.0000                   (X_M2.gb)    0.0000                       

(X_U5.HS)    0.0000                   (X_U5.VSS)    0.0000                      

(X_M1.drain_a)    0.0000              (X_M1.drain_b)    0.0000                  

(X_M2.drain_a)    0.0000              (X_M2.drain_b)    0.0000                  

(X_U5.LMG1210_VSS)    0.0000          (X_U5.LMG1210_LO_BST)    0.0000           

(X_U5.LMG1210_CORE_HOH)    0.0000     (X_U5.LMG1210_CORE_LOH)    0.0000         

(X_U5.LMG1210_VDD_VLDO)    0.0000     (X_U5.LMG1210_N16719683)    0.0000        

(X_U5.LMG1210_N16721723)    0.0000    (X_U5.LMG1210_N16721992)    0.0000        

(X_U5.LMG1210_N16761314)    0.0000    (X_U5.LMG1210_CORE_HI_ON)    0.0000       

(X_U5.LMG1210_CORE_LO_ON)    0.0000   (X_U5.X_LMG1210_PWM_U8.1)    0.0000       

(X_U5.LMG1210_CORE_UVLOHI)    0.0000  (X_U5.LMG1210_PWM_DT_CLKZ)    0.0000      

(X_U5.LMG1210_PWM_DT_DVDD)    0.0000  (X_U5.X_LMG1210_CORE_U5.1)    0.0000      

(X_U5.X_LMG1210_CORE_U9.1)    0.0000  (X_U5.LMG1210_CORE_UVLOLOW)    0.0000     

(X_U5.X_LMG1210_CORE_U10.1)    0.0000 (X_U5.X_LMG1210_CORE_U13.1)    0.0000     

(X_U5.X_LMG1210_CORE_U14.1)    0.0000 (X_U5.LMG1210_PWM_N16722442)    0.0000    

(X_U5.LMG1210_PWM_N16764262)    0.0000                                          

(X_U5.LMG1210_PWM_N16766360)    0.0000                                          

(X_U5.LMG1210_PWM_N16771098)    0.0000                                          

(X_U5.LMG1210_PWM_N16774119)    0.0000                                          

(X_U5.LMG1210_PWM_N16775153)    0.0000                                          

(X_U5.LMG1210_PWM_N16775155)    0.0000                                          

(X_U5.LMG1210_PWM_N16778522)    0.0000                                          

(X_U5.LMG1210_PWM_N16782654)    0.0000                                          

(X_U5.LMG1210_PWM_N16783816)    0.0000                                          

(X_U5.X_LMG1210_CORE_U11.Yp)    0.0000                                          

(X_U5.X_LMG1210_CORE_U12.Yp)    0.0000                                          

(X_U5.X_LMG1210_CORE_U15.Yp)    0.0000                                          

(X_U5.X_LMG1210_CORE_U7.INT)    0.0000                                          

(X_U5.X_LMG1210_CORE_U8.INT)    0.0000                                          

(X_U5.X_LMG1210_PWM_U8.INM1)    0.0000                                          

(X_U5.X_LMG1210_PWM_U8.INM2)    0.0000                                          

(X_U5.X_LMG1210_PWM_U8.INP1)    0.0000                                          

(X_U5.LMG1210_CORE_N16621524)    0.0000                                         

(X_U5.LMG1210_CORE_N16621542)    0.0000                                         

(X_U5.LMG1210_CORE_N16621646)    0.0000                                         

(X_U5.LMG1210_CORE_N16621650)    0.0000                                         

(X_U5.LMG1210_CORE_N16621734)    0.0000                                         

(X_U5.LMG1210_CORE_N16621760)    0.0000                                         

(X_U5.LMG1210_CORE_N16621878)    0.0000                                         

(X_U5.LMG1210_CORE_N16621906)    0.0000                                         

(X_U5.LMG1210_CORE_N16621966)    0.0000                                         

(X_U5.LMG1210_CORE_N16622210)    0.0000                                         

(X_U5.LMG1210_CORE_N16622224)    0.0000                                         

(X_U5.LMG1210_CORE_N16622258)    0.0000                                         

(X_U5.LMG1210_CORE_N16622408)    0.0000                                         

(X_U5.LMG1210_CORE_N16622620)    0.0000                                         

(X_U5.LMG1210_CORE_N16622670)    0.0000                                         

(X_U5.LMG1210_CORE_N16622702)    0.0000                                         

(X_U5.LMG1210_CORE_N16622828)    0.0000                                         

(X_U5.LMG1210_CORE_N16622840)    0.0000                                         

(X_U5.LMG1210_CORE_N16622960)    0.0000                                         

(X_U5.LMG1210_CORE_N16622998)    0.0000                                         

(X_U5.LMG1210_CORE_N16623018)    0.0000                                         

(X_U5.LMG1210_CORE_N16623024)    0.0000                                         

(X_U5.LMG1210_CORE_N16623050)    0.0000                                         

(X_U5.LMG1210_CORE_N16623296)    0.0000                                         

(X_U5.LMG1210_CORE_N16628590)    0.0000                                         

(X_U5.LMG1210_CORE_N16628618)    0.0000                                         

(X_U5.LMG1210_CORE_N16628650)    0.0000                                         

(X_U5.LMG1210_CORE_N16631286)    0.0000                                         

(X_U5.LMG1210_CORE_N16631334)    0.0000                                         

(X_U5.LMG1210_CORE_N16631366)    0.0000                                         

(X_U5.LMG1210_CORE_N16633096)    0.0000                                         

(X_U5.LMG1210_CORE_N16633124)    0.0000                                         

(X_U5.LMG1210_CORE_N16645608)    0.0000                                         

(X_U5.LMG1210_CORE_N16645614)    0.0000                                         

(X_U5.LMG1210_CORE_N16682205)    0.0000                                         

(X_U5.LMG1210_CORE_N16704239)    0.0000                                         

(X_U5.X_LMG1210_CORE_U11.Ypp)    0.0000                                         

(X_U5.X_LMG1210_CORE_U12.Ypp)    0.0000                                         

(X_U5.X_LMG1210_CORE_U15.Ypp)    0.0000                                         

(X_U5.X_LMG1210_CORE_U2.YINT)    0.0000                                         

(X_U5.X_LMG1210_CORE_U3.YINT)    0.0000                                         

(X_U5.X_LMG1210_CORE_U4.YINT)    0.0000                                         

(X_U5.X_LMG1210_CORE_U5.INM1)    0.0000                                         

(X_U5.X_LMG1210_CORE_U5.INP1)    0.0000                                         

(X_U5.X_LMG1210_CORE_U5.INP2)    0.0000                                         

(X_U5.X_LMG1210_CORE_U9.INM1)    0.0000                                         

(X_U5.X_LMG1210_CORE_U9.INP1)    0.0000                                         

(X_U5.X_LMG1210_CORE_U9.INP2)    0.0000                                         

(X_U5.X_LMG1210_CORE_U10.INM1)    0.0000                                        

(X_U5.X_LMG1210_CORE_U10.INP1)    0.0000                                        

(X_U5.X_LMG1210_CORE_U10.INP2)    0.0000                                        

(X_U5.X_LMG1210_CORE_U11.OUTf)    0.0000                                        

(X_U5.X_LMG1210_CORE_U11.OUTp)    0.0000                                        

(X_U5.X_LMG1210_CORE_U11.OUTr)    0.0000                                        

(X_U5.X_LMG1210_CORE_U11.VSUP)    0.0000                                        

(X_U5.X_LMG1210_CORE_U12.OUTf)    0.0000                                        

(X_U5.X_LMG1210_CORE_U12.OUTp)    0.0000                                        

(X_U5.X_LMG1210_CORE_U12.OUTr)    0.0000                                        

(X_U5.X_LMG1210_CORE_U12.VSUP)    0.0000                                        

(X_U5.X_LMG1210_CORE_U13.INM1)    0.0000                                        

(X_U5.X_LMG1210_CORE_U13.INP1)    0.0000                                        

(X_U5.X_LMG1210_CORE_U13.INP2)    0.0000                                        

(X_U5.X_LMG1210_CORE_U14.INM1)    0.0000                                        

(X_U5.X_LMG1210_CORE_U14.INP1)    0.0000                                        

(X_U5.X_LMG1210_CORE_U14.INP2)    0.0000                                        

(X_U5.X_LMG1210_CORE_U15.OUTf)    0.0000                                        

(X_U5.X_LMG1210_CORE_U15.OUTp)    0.0000                                        

(X_U5.X_LMG1210_CORE_U15.OUTr)    0.0000                                        

(X_U5.X_LMG1210_CORE_U15.VSUP)    0.0000                                        

(X_U5.X_LMG1210_U_LDO.LDO_VXX)    0.0000                                        

(X_U5.X_LMG1210_U_LDO.LDO_VYY)    0.0000                                        

(X_U5.X_LMG1210_U_LDO.LDO_VZZ)    0.0000                                        

(X_U5.LMG1210_PWM_DT_N16754844)    0.0000                                       

(X_U5.LMG1210_PWM_DT_N16754872)    0.0000                                       

(X_U5.LMG1210_PWM_DT_N16754912)    0.0000                                       

(X_U5.LMG1210_PWM_DT_N16755160)    0.0000                                       

(X_U5.LMG1210_PWM_DT_N16755188)    0.0000                                       

(X_U5.LMG1210_PWM_DT_N16755228)    0.0000                                       

(X_U5.LMG1210_PWM_DT_N16755282)    0.0000                                       

(X_U5.LMG1210_PWM_DT_N16755332)    0.0000                                       

(X_U5.LMG1210_PWM_DT_N16755440)    0.0000                                       

(X_U5.LMG1210_PWM_DT_N16755450)    0.0000                                       

(X_U5.LMG1210_PWM_DT_N16758862)    0.0000                                       

(X_U5.LMG1210_PWM_DT_N16769401)    0.0000                                       

(X_U5.LMG1210_PWM_SELECT_HI_LO)    0.0000                                       

(X_U5.X_LMG1210_PWM_DT_U8.Yint)    0.0000                                       

(X_U5.X_LMG1210_PWM_DT_U9.Yint)    0.0000                                       

(X_U5.X_LMG1210_PWM_DT_U28.YINT)    0.0000                                      

(X_U5.X_LMG1210_PWM_DT_U29.YINT)    0.0000                                      

(X_U5.X_LMG1210_PWM_DT_U30.YINT)    0.0000                                      

(X_U5.X_LMG1210_PWM_DT_U31.YINT)    0.0000                                      

(X_U5.X_LMG1210_PWM_DT_U32.YINT)    0.0000                                      

(X_U5.X_LMG1210_PWM_DT_U33.YINT)    0.0000                                      

(X_U5.X_LMG1210_PWM_DT_U34.YINT)    0.0000                                      

(X_U5.X_LMG1210_CORE_U7.X_U1.YINT)    0.0000                                    

(X_U5.X_LMG1210_CORE_U8.X_U1.YINT)    0.0000                                    

(X_U5.X_LMG1210_U_LDO.LDO_N222524)    0.0000                                    

(X_U5.X_LMG1210_U_LDO.LDO_N242982)    0.0000                                    

(X_U5.X_LMG1210_CORE_U11.XNSW1.test)    0.0000                                  

(X_U5.X_LMG1210_CORE_U11.XNSW2.test)    0.0000                                  

(X_U5.X_LMG1210_CORE_U11.XPSW1.test)    0.0000                                  

(X_U5.X_LMG1210_CORE_U11.XPSW2.test)    0.0000                                  

(X_U5.X_LMG1210_CORE_U12.XNSW1.test)    0.0000                                  

(X_U5.X_LMG1210_CORE_U12.XNSW2.test)    0.0000                                  

(X_U5.X_LMG1210_CORE_U12.XPSW1.test)    0.0000                                  

(X_U5.X_LMG1210_CORE_U12.XPSW2.test)    0.0000                                  

(X_U5.X_LMG1210_CORE_U15.XNSW1.test)    0.0000                                  

(X_U5.X_LMG1210_CORE_U15.XNSW2.test)    0.0000                                  

(X_U5.X_LMG1210_CORE_U15.XPSW1.test)    0.0000                                  

(X_U5.X_LMG1210_CORE_U15.XPSW2.test)    0.0000                                  

(X_U5.X_LMG1210_U_LDO.LDO_U1_N05348)    0.0000                                  

(X_U5.X_LMG1210_U_LDO.LDO_U1_N05382)    0.0000                                  

(X_U5.X_LMG1210_U_LDO.LDO_U1_N08164)    0.0000                                  

(X_U5.X_LMG1210_U_LDO.LDO_U1_N09035)    0.0000                                  

(X_U5.X_LMG1210_U_LDO.LDO_U1_N09745)    0.0000                                  

(X_U5.X_LMG1210_U_LDO.LDO_U1_N11113)    0.0000                                  

(X_U5.X_LMG1210_U_LDO.LDO_U1_N11626)    0.0000                                  

(X_U5.X_LMG1210_U_LDO.LDO_U1_N11911)    0.0000                                  

(X_U5.X_LMG1210_U_LDO.LDO_U1_N12664)    0.0000                                  

(X_U5.X_LMG1210_U_LDO.LDO_U1_N12783)    0.0000                                  

(X_U5.X_LMG1210_U_LDO.LDO_U1_N13377)    0.0000                                  

(X_U5.X_LMG1210_U_LDO.X_LDO_U1_U1.1)    0.0000                                  

(X_U5.X_LMG1210_U_LDO.X_LDO_U1_U2.1)    0.0000                                  

(X_U5.X_LMG1210_U_LDO.X_LDO_U1_U1.INM1)    0.0000                               

(X_U5.X_LMG1210_U_LDO.X_LDO_U1_U1.INP1)    0.0000                               

(X_U5.X_LMG1210_U_LDO.X_LDO_U1_U1.INP2)    0.0000                               

(X_U5.X_LMG1210_U_LDO.X_LDO_U1_U2.INM1)    0.0000                               

(X_U5.X_LMG1210_U_LDO.X_LDO_U1_U2.INP1)    0.0000                               

(X_U5.X_LMG1210_U_LDO.X_LDO_U1_U2.INP2)    0.0000        

Resuming Simulation with the following settings
ITL1 = 1000
RELTOL = 0.0086


**** 10/14/24 16:25:44 **** PSpice 22.1.0 (6 October 2022) **** ID# 0 ********

 ** Profile: "SCHEMATIC1-trans_1"  [ c:\users\a1201-admin\documents\exjobb\orcad\mostest_cadence-PSpiceFiles\SCHEMATIC1\trans_1.sim ]


 ****     INITIAL TRANSIENT SOLUTION       TEMPERATURE =   27.000 DEG C


******************************************************************************



 NODE   VOLTAGE     NODE   VOLTAGE     NODE   VOLTAGE     NODE   VOLTAGE


(   HB)    4.9755  (   HO) 20.33E-09  (   HS) 20.33E-09  (   LO)    5.0027      

(  BST)    5.0027  (  VCC)    5.0027  (VCC-5)    4.0000  (N16736) 20.33E-09     

(N20055)    0.0000 (N22362)    1.7053 (N22644)    1.7053 (VCC-10)   10.0000     

(X_M1.d)   20.0000 (X_M1.g) 20.33E-09 (X_M1.s) 20.33E-09 (X_M2.d) 17.50E-09     

(X_M2.g)    5.0027 (X_M2.s) 2.830E-09 (VCC-200)   20.0000                       

(X_M1.ga) 20.33E-09                   (X_M1.gb) 20.33E-09                       

(X_M2.ga)    5.0027                   (X_M2.gb)    5.0027                       

(X_U5.HS) 20.33E-09                   (X_U5.VSS)    0.0000                      

(X_M1.drain_a)   20.0000              (X_M1.drain_b)   20.0000                  

(X_M2.drain_a) 20.33E-09              (X_M2.drain_b) 20.33E-09                  

(X_U5.LMG1210_VSS) 112.6E-09          (X_U5.LMG1210_LO_BST)    5.0000           

(X_U5.LMG1210_CORE_HOH) 20.33E-09     (X_U5.LMG1210_CORE_LOH)    5.0027         

(X_U5.LMG1210_VDD_VLDO)    5.0027     (X_U5.LMG1210_N16719683)    1.0005        

(X_U5.LMG1210_N16721723) 20.33E-09    (X_U5.LMG1210_N16721992)    0.0000        

(X_U5.LMG1210_N16761314)   25.0140    (X_U5.LMG1210_CORE_HI_ON) 434.8E-12       

(X_U5.LMG1210_CORE_LO_ON)    1.0000   (X_U5.X_LMG1210_PWM_U8.1)    0.0000       

(X_U5.LMG1210_CORE_UVLOHI)    0.0000  (X_U5.LMG1210_PWM_DT_CLKZ)    1.0000      

(X_U5.LMG1210_PWM_DT_DVDD)    1.8000  (X_U5.X_LMG1210_CORE_U5.1)    0.0000      

(X_U5.X_LMG1210_CORE_U9.1)    0.0000  (X_U5.LMG1210_CORE_UVLOLOW)    1.0000     

(X_U5.X_LMG1210_CORE_U10.1)    1.0000 (X_U5.X_LMG1210_CORE_U13.1)    1.0000     

(X_U5.X_LMG1210_CORE_U14.1)    1.0000 (X_U5.LMG1210_PWM_N16722442)    0.0000    

(X_U5.LMG1210_PWM_N16764262)    4.5000                                          

(X_U5.LMG1210_PWM_N16766360)    5.0000                                          

(X_U5.LMG1210_PWM_N16771098)     .3000                                          

(X_U5.LMG1210_PWM_N16774119)    0.0000                                          

(X_U5.LMG1210_PWM_N16775153)   25.0140                                          

(X_U5.LMG1210_PWM_N16775155)   25.0140                                          

(X_U5.LMG1210_PWM_N16778522)    0.0000                                          

(X_U5.LMG1210_PWM_N16782654)    0.0000                                          

(X_U5.LMG1210_PWM_N16783816)    0.0000                                          

(X_U5.X_LMG1210_CORE_U11.Yp)    1.0000                                          

(X_U5.X_LMG1210_CORE_U12.Yp)    0.0000                                          

(X_U5.X_LMG1210_CORE_U15.Yp)    0.0000                                          

(X_U5.X_LMG1210_CORE_U7.INT) 434.8E-12                                          

(X_U5.X_LMG1210_CORE_U8.INT)    1.0000                                          

(X_U5.X_LMG1210_PWM_U8.INM1)    1.3224                                          

(X_U5.X_LMG1210_PWM_U8.INM2)    1.4724                                          

(X_U5.X_LMG1210_PWM_U8.INP1)   -1.4724                                          

(X_U5.LMG1210_CORE_N16621524)    1.0000                                         

(X_U5.LMG1210_CORE_N16621542)    0.0000                                         

(X_U5.LMG1210_CORE_N16621646)    0.0000                                         

(X_U5.LMG1210_CORE_N16621650)    1.0000                                         

(X_U5.LMG1210_CORE_N16621734)    1.8000                                         

(X_U5.LMG1210_CORE_N16621760)     .4000                                         

(X_U5.LMG1210_CORE_N16621878)    1.8000                                         

(X_U5.LMG1210_CORE_N16621906)     .4000                                         

(X_U5.LMG1210_CORE_N16621966)    1.0000                                         

(X_U5.LMG1210_CORE_N16622210)   -5.0000                                         

(X_U5.LMG1210_CORE_N16622224)   -5.0000                                         

(X_U5.LMG1210_CORE_N16622258) 20.33E-09                                         

(X_U5.LMG1210_CORE_N16622408)    0.0000                                         

(X_U5.LMG1210_CORE_N16622620)   10.0030                                         

(X_U5.LMG1210_CORE_N16622670)   10.0030                                         

(X_U5.LMG1210_CORE_N16622702)    5.0027                                         

(X_U5.LMG1210_CORE_N16622828)   10.0030                                         

(X_U5.LMG1210_CORE_N16622840) 112.6E-09                                         

(X_U5.LMG1210_CORE_N16622960)   10.0030                                         

(X_U5.LMG1210_CORE_N16622998)    1.0000                                         

(X_U5.LMG1210_CORE_N16623018)   -5.0000                                         

(X_U5.LMG1210_CORE_N16623024)   -5.0000                                         

(X_U5.LMG1210_CORE_N16623050)    4.9755                                         

(X_U5.LMG1210_CORE_N16623296)    4.9900                                         

(X_U5.LMG1210_CORE_N16628590)    7.2000                                         

(X_U5.LMG1210_CORE_N16628618)     .2000                                         

(X_U5.LMG1210_CORE_N16628650)    4.9755                                         

(X_U5.LMG1210_CORE_N16631286)    3.5500                                         

(X_U5.LMG1210_CORE_N16631334)     .1000                                         

(X_U5.LMG1210_CORE_N16631366)    4.9755                                         

(X_U5.LMG1210_CORE_N16633096)    4.2500                                         

(X_U5.LMG1210_CORE_N16633124)     .2000                                         

(X_U5.LMG1210_CORE_N16645608)    0.0000                                         

(X_U5.LMG1210_CORE_N16645614) 434.8E-12                                         

(X_U5.LMG1210_CORE_N16682205)    1.0000                                         

(X_U5.LMG1210_CORE_N16704239)    1.0000                                         

(X_U5.X_LMG1210_CORE_U11.Ypp)    0.0000                                         

(X_U5.X_LMG1210_CORE_U12.Ypp)    1.0000                                         

(X_U5.X_LMG1210_CORE_U15.Ypp)    1.0000                                         

(X_U5.X_LMG1210_CORE_U2.YINT)    0.0000                                         

(X_U5.X_LMG1210_CORE_U3.YINT)    1.0000                                         

(X_U5.X_LMG1210_CORE_U4.YINT)    0.0000                                         

(X_U5.X_LMG1210_CORE_U5.INM1)    1.8000                                         

(X_U5.X_LMG1210_CORE_U5.INP1)    0.0000                                         

(X_U5.X_LMG1210_CORE_U5.INP2)    0.0000                                         

(X_U5.X_LMG1210_CORE_U9.INM1)    2.2245                                         

(X_U5.X_LMG1210_CORE_U9.INP1)    0.0000                                         

(X_U5.X_LMG1210_CORE_U9.INP2)    0.0000                                         

(X_U5.X_LMG1210_CORE_U10.INM1)  -23.2140                                        

(X_U5.X_LMG1210_CORE_U10.INP1)    0.0000                                        

(X_U5.X_LMG1210_CORE_U10.INP2)     .4000                                        

(X_U5.X_LMG1210_CORE_U11.OUTf) 434.8E-12                                        

(X_U5.X_LMG1210_CORE_U11.OUTp)    1.0000                                        

(X_U5.X_LMG1210_CORE_U11.OUTr) 434.8E-12                                        

(X_U5.X_LMG1210_CORE_U11.VSUP)    1.0000                                        

(X_U5.X_LMG1210_CORE_U12.OUTf)    1.0000                                        

(X_U5.X_LMG1210_CORE_U12.OUTp) 7.215E-09                                        

(X_U5.X_LMG1210_CORE_U12.OUTr)    1.0000                                        

(X_U5.X_LMG1210_CORE_U12.VSUP)    1.0000                                        

(X_U5.X_LMG1210_CORE_U13.INM1)   -1.4255                                        

(X_U5.X_LMG1210_CORE_U13.INP1)    0.0000                                        

(X_U5.X_LMG1210_CORE_U13.INP2)     .1000                                        

(X_U5.X_LMG1210_CORE_U14.INM1)    -.7527                                        

(X_U5.X_LMG1210_CORE_U14.INP1)    0.0000                                        

(X_U5.X_LMG1210_CORE_U14.INP2)     .2000                                        

(X_U5.X_LMG1210_CORE_U15.OUTf)    1.0000                                        

(X_U5.X_LMG1210_CORE_U15.OUTp) 14.43E-09                                        

(X_U5.X_LMG1210_CORE_U15.OUTr)    1.0000                                        

(X_U5.X_LMG1210_CORE_U15.VSUP)    1.0000                                        

(X_U5.X_LMG1210_U_LDO.LDO_VXX)    5.0028                                        

(X_U5.X_LMG1210_U_LDO.LDO_VYY)    5.0028                                        

(X_U5.X_LMG1210_U_LDO.LDO_VZZ)    5.0027                                        

(X_U5.LMG1210_PWM_DT_N16754844)    0.0000                                       

(X_U5.LMG1210_PWM_DT_N16754872)    1.0000                                       

(X_U5.LMG1210_PWM_DT_N16754912)    1.0000                                       

(X_U5.LMG1210_PWM_DT_N16755160)    0.0000                                       

(X_U5.LMG1210_PWM_DT_N16755188)    1.0000                                       

(X_U5.LMG1210_PWM_DT_N16755228)    1.0000                                       

(X_U5.LMG1210_PWM_DT_N16755282)    1.0000                                       

(X_U5.LMG1210_PWM_DT_N16755332)    1.0000                                       

(X_U5.LMG1210_PWM_DT_N16755440)    0.0000                                       

(X_U5.LMG1210_PWM_DT_N16755450)    1.0000                                       

(X_U5.LMG1210_PWM_DT_N16758862)     .9009                                       

(X_U5.LMG1210_PWM_DT_N16769401)     .9000                                       

(X_U5.LMG1210_PWM_SELECT_HI_LO)    0.0000                                       

(X_U5.X_LMG1210_PWM_DT_U8.Yint)    1.0000                                       

(X_U5.X_LMG1210_PWM_DT_U9.Yint)    1.0000                                       

(X_U5.X_LMG1210_PWM_DT_U28.YINT)    1.0000                                      

(X_U5.X_LMG1210_PWM_DT_U29.YINT)    0.0000                                      

(X_U5.X_LMG1210_PWM_DT_U30.YINT)    1.0000                                      

(X_U5.X_LMG1210_PWM_DT_U31.YINT)    0.0000                                      

(X_U5.X_LMG1210_PWM_DT_U32.YINT)    0.0000                                      

(X_U5.X_LMG1210_PWM_DT_U33.YINT)    1.0000                                      

(X_U5.X_LMG1210_PWM_DT_U34.YINT)    1.0000                                      

(X_U5.X_LMG1210_CORE_U7.X_U1.YINT)    0.0000                                    

(X_U5.X_LMG1210_CORE_U8.X_U1.YINT)    1.0000                                    

(X_U5.X_LMG1210_U_LDO.LDO_N222524)    5.0000                                    

(X_U5.X_LMG1210_U_LDO.LDO_N242982)    5.0028                                    

(X_U5.X_LMG1210_CORE_U11.XNSW1.test)    0.0000                                  

(X_U5.X_LMG1210_CORE_U11.XNSW2.test)    1.0000                                  

(X_U5.X_LMG1210_CORE_U11.XPSW1.test)    1.0000                                  

(X_U5.X_LMG1210_CORE_U11.XPSW2.test)    0.0000                                  

(X_U5.X_LMG1210_CORE_U12.XNSW1.test)    1.0000                                  

(X_U5.X_LMG1210_CORE_U12.XNSW2.test)    0.0000                                  

(X_U5.X_LMG1210_CORE_U12.XPSW1.test)    0.0000                                  

(X_U5.X_LMG1210_CORE_U12.XPSW2.test)    1.0000                                  

(X_U5.X_LMG1210_CORE_U15.XNSW1.test)    1.0000                                  

(X_U5.X_LMG1210_CORE_U15.XNSW2.test)    0.0000                                  

(X_U5.X_LMG1210_CORE_U15.XPSW1.test)    0.0000                                  

(X_U5.X_LMG1210_CORE_U15.XPSW2.test)    1.0000                                  

(X_U5.X_LMG1210_U_LDO.LDO_U1_N05348)    1.0000                                  

(X_U5.X_LMG1210_U_LDO.LDO_U1_N05382)    5.0000                                  

(X_U5.X_LMG1210_U_LDO.LDO_U1_N08164)    1.0000                                  

(X_U5.X_LMG1210_U_LDO.LDO_U1_N09035)    5.0000                                  

(X_U5.X_LMG1210_U_LDO.LDO_U1_N09745)    5.0000                                  

(X_U5.X_LMG1210_U_LDO.LDO_U1_N11113)    1.0000                                  

(X_U5.X_LMG1210_U_LDO.LDO_U1_N11626)     .1000                                  

(X_U5.X_LMG1210_U_LDO.LDO_U1_N11911)     .4000                                  

(X_U5.X_LMG1210_U_LDO.LDO_U1_N12664)     .1000                                  

(X_U5.X_LMG1210_U_LDO.LDO_U1_N12783)     .1000                                  

(X_U5.X_LMG1210_U_LDO.LDO_U1_N13377)    1.0000                                  

(X_U5.X_LMG1210_U_LDO.X_LDO_U1_U1.1)    1.0000                                  

(X_U5.X_LMG1210_U_LDO.X_LDO_U1_U2.1)    1.0000                                  

(X_U5.X_LMG1210_U_LDO.X_LDO_U1_U1.INM1)   -9.6000                               

(X_U5.X_LMG1210_U_LDO.X_LDO_U1_U1.INP1)    0.0000                               

(X_U5.X_LMG1210_U_LDO.X_LDO_U1_U1.INP2)     .1000                               

(X_U5.X_LMG1210_U_LDO.X_LDO_U1_U2.INM1)   -9.9000                               

(X_U5.X_LMG1210_U_LDO.X_LDO_U1_U2.INP1)    0.0000                               

(X_U5.X_LMG1210_U_LDO.X_LDO_U1_U2.INP2)     .1000        




    VOLTAGE SOURCE CURRENTS
    NAME         CURRENT

    V_V1         0.000E+00
    V_V2        -1.000E-06
    V_V3        -1.006E-04
    V_V4         0.000E+00
    X_U5.V_LMG1210_PWM_V10   0.000E+00
    X_U5.V_LMG1210_PWM_V6   0.000E+00
    X_U5.V_LMG1210_PWM_DT_V5  -9.005E+02
    X_U5.V_LMG1210_CORE_V10   0.000E+00
    X_U5.V_LMG1210_CORE_V5   0.000E+00
    X_U5.V_LMG1210_CORE_V6   0.000E+00
    X_U5.V_LMG1210_CORE_V3   0.000E+00
    X_U5.V_LMG1210_CORE_V4   0.000E+00
    X_U5.V_LMG1210_CORE_V7   0.000E+00
    X_U5.V_LMG1210_CORE_V8   0.000E+00
    X_U5.V_LMG1210_CORE_V1   0.000E+00
    X_U5.V_LMG1210_CORE_V2   0.000E+00
    X_U5.V_LMG1210_CORE_V9   0.000E+00
    X_U5.X_LMG1210_U_LDO.V_LDO_U1_V4   0.000E+00
    X_U5.X_LMG1210_U_LDO.V_LDO_U1_V2   0.000E+00
    X_U5.X_LMG1210_U_LDO.V_LDO_U1_V3   0.000E+00
    X_U5.X_LMG1210_U_LDO.V_LDO_U1_V1   0.000E+00
    X_U5.X_LMG1210_CORE_U11.VS  -4.200E-11
    X_U5.X_LMG1210_CORE_U12.VS  -4.200E-11
    X_U5.X_LMG1210_CORE_U15.VS  -4.200E-11
    X_U5.X_LMG1210_U_LDO.X_LDO_F1.VF_LDO_F1   1.001E-04

    TOTAL POWER DISSIPATION   1.62E+03  WATTS


          JOB ABORTED

**** 10/14/24 16:25:44 **** PSpice 22.1.0 (6 October 2022) **** ID# 0 ********

 ** Profile: "SCHEMATIC1-trans_1"  [ c:\users\a1201-admin\documents\exjobb\orcad\mostest_cadence-PSpiceFiles\SCHEMATIC1\trans_1.sim ]


 ****     JOB STATISTICS SUMMARY


******************************************************************************



  License check-out time            =      711.95
  Total job time (using Solver 1)   =       51.56
