
**** 11/17/24 17:26:24 **** PSpice 22.1.0 (6 October 2022) **** ID# 0 ********

 ** Profile: "SCHEMATIC1-bias"  [ C:\Users\A1201-admin\Documents\Exjobb\Orcad\pwm generator-pspicefiles\schematic1\bias.sim ] 


 ****     CIRCUIT DESCRIPTION


******************************************************************************




** Creating circuit file "bias.cir" 
** WARNING: THIS AUTOMATICALLY GENERATED FILE MAY BE OVERWRITTEN BY SUBSEQUENT SIMULATIONS

*Libraries: 
* Profile Libraries :
* Local Libraries :
* From [PSPICE NETLIST] section of C:\Users\A1201-admin\cdssetup\OrCAD_PSpice\22.1.0\PSpice.ini file:
.lib "C:\Users\A1201-admin\Documents\Exjobb\Orcad\lmg1210.lib" 
.lib "nom.lib" 

*Analysis directives: 
.TRAN  0 2u  0 0.1n SKIPBP 
.OPTIONS ADVCONV
.PROBE64 V(alias(*)) I(alias(*)) W(alias(*)) D(alias(*)) NOISE(alias(*)) 
.INC "..\SCHEMATIC1.net" 



**** INCLUDING SCHEMATIC1.net ****
* source PWM GENERATOR
R_R1         N36490 N36818  1500 TC=0,0 
R_R2         N36794 N36818  1500 TC=0,0 
V_V4         VCC_ARROW 0 5
V_V5         VCC 0 -1
C_C1         N36794 N36505  2,5p  TC=0,0 
------------------------------$
ERROR(ORPSIM-16015): Unknown parameter.
R_R3         N36505 N36490  1500 TC=0,0 
X_U4         N75044 N36505 VCC_ARROW VCC N38449 MAX4223/MXM
V_V6         N38350 0  AC 0
+SIN 2 2 1meg 0 0 0
X_U5         N60513 N36794 VCC_ARROW 0 N36505 AD8009an/AD
X_U6         N36490 N60513 VCC_ARROW 0 N36818 AD8009an/AD
X_U10         N36505 N40782 VCC_ARROW 0 N40824 max977hs/mxm
R_R4         N40782 N38350  1 TC=0,0 
R_R5         0 N40782  10k TC=0,0 
R_R6         N60513 VCC_ARROW  1 TC=0,0 
R_R7         N60513 0  1 TC=0,0 
R_R8         N38350 N75044  1k TC=0,0 

**** RESUMING bias.cir ****
.END
